Version 4
SHEET 1 880 680
WIRE -1616 -336 -1936 -336
WIRE -1088 -336 -1616 -336
WIRE -704 -336 -1088 -336
WIRE -368 -336 -704 -336
WIRE -1616 -288 -1616 -336
WIRE -1088 -240 -1088 -336
WIRE -368 -208 -368 -336
WIRE -288 -208 -368 -208
WIRE -1936 -176 -1936 -336
WIRE -1616 -160 -1616 -208
WIRE -1408 -160 -1616 -160
WIRE -288 -144 -288 -208
WIRE -1616 -112 -1616 -160
WIRE -656 -48 -832 -48
WIRE -368 -48 -368 -208
WIRE -368 -48 -432 -48
WIRE -288 -48 -288 -64
WIRE -288 -48 -336 -48
WIRE -2016 -32 -2240 -32
WIRE -1936 -32 -1936 -96
WIRE -1936 -32 -2016 -32
WIRE -1792 -32 -1936 -32
WIRE -288 -16 -288 -48
WIRE 112 -16 0 -16
WIRE -1616 16 -1616 -48
WIRE -656 16 -736 16
WIRE -336 16 -336 -48
WIRE -336 16 -432 16
WIRE 112 16 64 16
WIRE -1936 32 -1936 -32
WIRE -1792 32 -1792 -32
WIRE -2016 48 -2016 -32
WIRE -2016 48 -2064 48
WIRE -1408 48 -1408 -160
WIRE 112 48 -144 48
WIRE -2240 64 -2240 48
WIRE -2240 64 -2320 64
WIRE -2208 64 -2240 64
WIRE -2016 80 -2064 80
WIRE -656 80 -688 80
WIRE -336 80 -432 80
WIRE -288 80 -288 64
WIRE -288 80 -336 80
WIRE 0 112 0 -16
WIRE 448 112 336 112
WIRE -2240 144 -2240 128
WIRE -2016 144 -2016 80
WIRE -2016 144 -2240 144
WIRE -1936 144 -1936 96
WIRE -1936 144 -2016 144
WIRE -1792 144 -1792 96
WIRE -1792 144 -1936 144
WIRE -704 144 -704 -336
WIRE -656 144 -704 144
WIRE -384 144 -432 144
WIRE 448 144 336 144
WIRE -1936 176 -1936 144
WIRE 448 176 336 176
WIRE -1600 192 -1824 192
WIRE -1520 192 -1600 192
WIRE -1408 192 -1408 128
WIRE -1408 192 -1520 192
WIRE -688 208 -688 80
WIRE -144 208 -144 48
WIRE -144 208 -688 208
WIRE 448 208 336 208
WIRE -736 240 -736 16
WIRE -624 240 -736 240
WIRE -336 240 -336 80
WIRE -336 240 -624 240
WIRE 448 240 336 240
WIRE -1520 256 -1520 192
WIRE -1408 256 -1408 192
WIRE -1600 272 -1600 192
WIRE -1600 272 -1648 272
WIRE 448 272 336 272
WIRE -1824 288 -1824 272
WIRE -1824 288 -1904 288
WIRE -1792 288 -1824 288
WIRE -384 288 -384 144
WIRE -1600 304 -1648 304
WIRE -624 304 -624 240
WIRE 448 304 336 304
WIRE 448 336 336 336
WIRE -1824 368 -1824 352
WIRE -1600 368 -1600 304
WIRE -1600 368 -1824 368
WIRE -1520 368 -1520 320
WIRE -1520 368 -1600 368
WIRE -1408 368 -1408 336
WIRE -1408 368 -1520 368
WIRE 448 368 336 368
WIRE -1520 400 -1520 368
WIRE 528 400 336 400
WIRE -1088 432 -1088 -160
WIRE -832 432 -832 -48
WIRE -832 432 -1088 432
WIRE -624 432 -624 368
WIRE -624 432 -832 432
WIRE -384 432 -384 352
WIRE -384 432 -624 432
WIRE 448 432 336 432
WIRE -832 480 -832 432
WIRE 64 528 64 16
WIRE 528 528 528 400
WIRE 528 528 64 528
FLAG -832 480 0
FLAG 0 112 0
FLAG -704 -336 Vdd
FLAG -1936 176 0
FLAG -1616 16 0
FLAG -1520 400 0
SYMBOL Misc\\NE555 -544 48 R0
SYMATTR InstName U2
SYMBOL Misc\\battery -1088 -256 R0
WINDOW 123 0 0 Left 2
WINDOW 39 24 44 Left 2
SYMATTR SpiceLine Rser=0.050
SYMATTR InstName V1
SYMATTR Value PWL(0 0 0.25 5 0.5 5 0.75 12 1 12 1.25 13.8 1.5 13.8 1.75 20)
SYMBOL cap -400 288 R0
SYMATTR InstName C1
SYMATTR Value 0.01e-6
SYMATTR SpiceLine V=16
SYMBOL cap -640 304 R0
SYMATTR InstName C2
SYMATTR Value 1e-6
SYMATTR SpiceLine V=16
SYMBOL res -304 -160 R0
SYMATTR InstName R1
SYMATTR Value 100e3
SYMBOL res -304 -32 R0
SYMATTR InstName R2
SYMATTR Value 100e3
SYMBOL Dig_Add\\cd4017b 224 -80 R0
SYMATTR InstName U1
SYMATTR SpiceLine VDD=13.1  SPEED=1.0  TRIPDT=5e-9
SYMBOL res -1952 -192 R0
SYMATTR InstName R3
SYMATTR Value 1.68e3
SYMBOL cap -1952 32 R0
SYMATTR InstName C3
SYMATTR Value 100e-6
SYMATTR SpiceLine V=16
SYMBOL cap -2256 64 R0
SYMATTR InstName C4
SYMATTR Value 10e-9
SYMATTR SpiceLine V=16
SYMBOL zener -1776 96 R180
WINDOW 0 24 64 Left 2
WINDOW 3 24 0 Left 2
SYMATTR InstName D1
SYMATTR Value DZ2J036
SYMATTR Prefix X
SYMBOL AutoGenerated\\bu4831 -2144 64 R0
SYMATTR InstName U4
SYMBOL res -2256 -48 R0
SYMATTR InstName R5
SYMATTR Value 10e3
SYMBOL zener -1600 -48 R180
WINDOW 0 24 64 Left 2
WINDOW 3 24 0 Left 2
SYMATTR InstName D2
SYMATTR Value mm3z12vt1g
SYMATTR Prefix X
SYMBOL res -1632 -304 R0
SYMATTR InstName R4
SYMATTR Value 360
SYMBOL cap -1536 256 R0
SYMATTR InstName C5
SYMATTR Value 100e-6
SYMATTR SpiceLine V=16
SYMBOL cap -1840 288 R0
SYMATTR InstName C6
SYMATTR Value 10e-9
SYMATTR SpiceLine V=16
SYMBOL AutoGenerated\\bu4831 -1728 288 R0
SYMATTR InstName U3
SYMBOL res -1840 176 R0
SYMATTR InstName R6
SYMATTR Value 10e3
SYMBOL res -1424 240 R0
SYMATTR InstName R7
SYMATTR Value 10e3
SYMBOL res -1424 32 R0
SYMATTR InstName R8
SYMATTR Value 10e3
TEXT -1120 504 Left 2 !.tran 2.4 startup
TEXT -1120 544 Left 2 !.lib dz2j036.lib
TEXT -1120 592 Left 2 !.lib MM3Z12VT1G.LIB
